/*--------------------------------*- C++ -*----------------------------------*\
| =========                 |                                                 |
| \\      /  F ield         | OpenFOAM: The Open Source CFD Toolbox           |
|  \\    /   O peration     | Version:  2406                                  |
|   \\  /    A nd           | Website:  www.openfoam.com                      |
|    \\/     M anipulation  |                                                 |
\*---------------------------------------------------------------------------*/
FoamFile
{
    version     2.0;
    format      binary;
    arch        "LSB;label=32;scalar=64";
    class       polyBoundaryMesh;
    location    "1.95e-06/polyMesh";
    object      boundary;
}
// * * * * * * * * * * * * * * * * * * * * * * * * * * * * * * * * * * * * * //

4
(
    inlet
    {
        type            patch;
        nFaces          4096;
        startFace       12154725;
    }
    outlet
    {
        type            patch;
        nFaces          4096;
        startFace       12158821;
    }
    walls
    {
        type            wall;
        inGroups        1(wall);
        nFaces          46080;
        startFace       12162917;
    }
    filterscreen
    {
        type            wall;
        inGroups        1(wall);
        nFaces          530716;
        startFace       12208997;
    }
)

// ************************************************************************* //
